MODEL 1
REMARK VINA RESULT:     -10.1      0.000      0.000
REMARK  Name = A STI 201 (1)
REMARK  8 active torsions:
REMARK  status: ('A' for Active; 'I' for Inactive)
REMARK    1  A    between atoms: C_3  and  C_7
REMARK    2  A    between atoms: N_13  and  C_14
REMARK    3  A    between atoms: C_15  and  C_37
REMARK    4  A    between atoms: C_18  and  N_20
REMARK    5  A    between atoms: C_21  and  C_22
REMARK    6  A    between atoms: C_25  and  C_28
REMARK    7  A    between atoms: C_28  and  N_29
REMARK    8  A    between atoms: N_32  and  C_33
REMARK                            x       y       z     vdW  Elec       q    Type
REMARK                         _______ _______ _______ _____ _____    ______ ____
ROOT
ATOM      1  C   UNL     1      18.041  47.631  18.724  0.00  0.00    +0.038 A 
ATOM      2  C   UNL     1      18.006  48.627  17.770  0.00  0.00    +0.046 A 
ATOM      3  C   UNL     1      16.966  49.536  17.733  0.00  0.00    +0.035 A 
ATOM      4  C   UNL     1      15.953  49.426  18.670  0.00  0.00    +0.024 A 
ATOM      5  C   UNL     1      15.982  48.435  19.622  0.00  0.00    +0.007 A 
ATOM      6  C   UNL     1      17.019  47.533  19.658  0.00  0.00    -0.029 A 
ATOM      7  C   UNL     1      17.023  46.461  20.734  0.00  0.00    +0.045 C 
ENDROOT
BRANCH   1  11
ATOM      8  C   UNL     1      21.977  48.759  18.584  0.00  0.00    +0.077 A 
ATOM      9  N   UNL     1      20.676  48.418  18.619  0.00  0.00    -0.214 NA
ATOM     10  C   UNL     1      20.436  47.094  18.697  0.00  0.00    +0.220 A 
ATOM     11  N   UNL     1      19.127  46.717  18.739  0.00  0.00    -0.283 N 
ATOM     12  H   UNL     1      18.950  45.859  18.774  0.00  0.00    +0.155 HD
ATOM     13  N   UNL     1      21.328  46.085  18.746  0.00  0.00    -0.223 NA
ATOM     14  C   UNL     1      22.611  46.482  18.711  0.00  0.00    +0.116 A 
ATOM     15  C   UNL     1      22.969  47.798  18.631  0.00  0.00    +0.048 A 
BRANCH   8  20
ATOM     16  C   UNL     1      23.652  52.079  18.186  0.00  0.00    +0.020 A 
ATOM     17  C   UNL     1      22.547  52.879  18.348  0.00  0.00    +0.111 A 
ATOM     18  N   UNL     1      21.309  52.404  18.578  0.00  0.00    -0.263 NA
ATOM     19  C   UNL     1      21.202  51.063  18.642  0.00  0.00    +0.120 A 
ATOM     20  C   UNL     1      22.259  50.183  18.489  0.00  0.00    +0.019 A 
ATOM     21  C   UNL     1      23.509  50.722  18.256  0.00  0.00    +0.013 A 
ENDBRANCH   8  20
ENDBRANCH   1  11
BRANCH   3  22
ATOM     22  N   UNL     1      16.917  50.562  16.773  0.00  0.00    -0.281 N 
ATOM     23  H   UNL     1      17.666  51.002  16.655  0.00  0.00    +0.155 HD
ATOM     24  C   UNL     1      15.867  50.940  16.008  0.00  0.00    +0.248 C 
ATOM     25  O   UNL     1      14.772  50.385  16.044  0.00  0.00    -0.270 OA
BRANCH  24  26
ATOM     26  C   UNL     1      15.991  52.073  15.052  0.00  0.00    +0.037 A 
ATOM     27  C   UNL     1      16.825  52.040  13.940  0.00  0.00    +0.013 A 
ATOM     28  C   UNL     1      16.900  53.113  13.086  0.00  0.00    +0.006 A 
ATOM     29  C   UNL     1      16.153  54.247  13.318  0.00  0.00    -0.033 A 
ATOM     30  C   UNL     1      15.325  54.296  14.417  0.00  0.00    +0.006 A 
ATOM     31  C   UNL     1      15.248  53.224  15.272  0.00  0.00    +0.013 A 
BRANCH  29  32
ATOM     32  C   UNL     1      16.248  55.433  12.369  0.00  0.00    +0.120 C 
BRANCH  32  33
ATOM     33  N   UNL     1      15.513  56.624  12.839  0.00  0.00    -0.288 NA
ATOM     34  C   UNL     1      14.333  56.862  11.988  0.00  0.00    +0.135 C 
ATOM     35  C   UNL     1      13.516  58.047  12.539  0.00  0.00    +0.146 C 
ATOM     36  N   UNL     1      14.387  59.273  12.634  0.00  0.00    +0.235 N 
ATOM     37  H   UNL     1      14.654  59.465  11.783  0.00  0.00    +0.203 HD
ATOM     38  C   UNL     1      13.630  60.477  13.126  0.00  0.00    +0.190 C 
ATOM     39  C   UNL     1      15.644  59.022  13.428  0.00  0.00    +0.146 C 
ATOM     40  C   UNL     1      16.395  57.810  12.843  0.00  0.00    +0.135 C 
ENDBRANCH  32  33
ENDBRANCH  29  32
ENDBRANCH  24  26
ENDBRANCH   3  22
TORSDOF 6
ENDMDL
MODEL 2
REMARK VINA RESULT:      -9.9      1.903      2.261
REMARK  Name = A STI 201 (1)
REMARK  8 active torsions:
REMARK  status: ('A' for Active; 'I' for Inactive)
REMARK    1  A    between atoms: C_3  and  C_7
REMARK    2  A    between atoms: N_13  and  C_14
REMARK    3  A    between atoms: C_15  and  C_37
REMARK    4  A    between atoms: C_18  and  N_20
REMARK    5  A    between atoms: C_21  and  C_22
REMARK    6  A    between atoms: C_25  and  C_28
REMARK    7  A    between atoms: C_28  and  N_29
REMARK    8  A    between atoms: N_32  and  C_33
REMARK                            x       y       z     vdW  Elec       q    Type
REMARK                         _______ _______ _______ _____ _____    ______ ____
ROOT
ATOM      1  C   UNL     1      18.252  47.747  18.639  0.00  0.00    +0.038 A 
ATOM      2  C   UNL     1      18.161  48.783  17.732  0.00  0.00    +0.046 A 
ATOM      3  C   UNL     1      17.013  49.546  17.639  0.00  0.00    +0.035 A 
ATOM      4  C   UNL     1      15.948  49.247  18.471  0.00  0.00    +0.024 A 
ATOM      5  C   UNL     1      16.031  48.215  19.376  0.00  0.00    +0.007 A 
ATOM      6  C   UNL     1      17.176  47.460  19.468  0.00  0.00    -0.029 A 
ATOM      7  C   UNL     1      17.235  46.338  20.490  0.00  0.00    +0.045 C 
ENDROOT
BRANCH   1  11
ATOM      8  C   UNL     1      21.351  48.616  21.173  0.00  0.00    +0.077 A 
ATOM      9  N   UNL     1      20.321  48.361  20.345  0.00  0.00    -0.214 NA
ATOM     10  C   UNL     1      20.476  47.275  19.561  0.00  0.00    +0.220 A 
ATOM     11  N   UNL     1      19.448  46.988  18.714  0.00  0.00    -0.283 N 
ATOM     12  H   UNL     1      19.537  46.294  18.184  0.00  0.00    +0.155 HD
ATOM     13  N   UNL     1      21.521  46.425  19.509  0.00  0.00    -0.223 NA
ATOM     14  C   UNL     1      22.519  46.725  20.357  0.00  0.00    +0.116 A 
ATOM     15  C   UNL     1      22.468  47.802  21.196  0.00  0.00    +0.048 A 
BRANCH   8  20
ATOM     16  C   UNL     1      20.456  50.979  23.930  0.00  0.00    +0.020 A 
ATOM     17  C   UNL     1      21.084  52.099  23.442  0.00  0.00    +0.111 A 
ATOM     18  N   UNL     1      21.768  52.126  22.284  0.00  0.00    -0.263 NA
ATOM     19  C   UNL     1      21.811  50.963  21.605  0.00  0.00    +0.120 A 
ATOM     20  C   UNL     1      21.210  49.789  22.021  0.00  0.00    +0.019 A 
ATOM     21  C   UNL     1      20.519  49.814  23.217  0.00  0.00    +0.013 A 
ENDBRANCH   8  20
ENDBRANCH   1  11
BRANCH   3  22
ATOM     22  N   UNL     1      16.906  50.609  16.726  0.00  0.00    -0.281 N 
ATOM     23  H   UNL     1      17.629  51.095  16.630  0.00  0.00    +0.155 HD
ATOM     24  C   UNL     1      15.835  50.962  15.978  0.00  0.00    +0.248 C 
ATOM     25  O   UNL     1      14.773  50.346  15.987  0.00  0.00    -0.270 OA
BRANCH  24  26
ATOM     26  C   UNL     1      15.895  52.142  15.074  0.00  0.00    +0.037 A 
ATOM     27  C   UNL     1      15.146  53.295  15.279  0.00  0.00    +0.013 A 
ATOM     28  C   UNL     1      15.241  54.358  14.414  0.00  0.00    +0.006 A 
ATOM     29  C   UNL     1      16.078  54.300  13.322  0.00  0.00    -0.033 A 
ATOM     30  C   UNL     1      16.823  53.163  13.103  0.00  0.00    +0.006 A 
ATOM     31  C   UNL     1      16.731  52.099  13.966  0.00  0.00    +0.013 A 
BRANCH  29  32
ATOM     32  C   UNL     1      16.172  55.482  12.366  0.00  0.00    +0.120 C 
BRANCH  32  33
ATOM     33  N   UNL     1      15.436  56.675  12.831  0.00  0.00    -0.288 NA
ATOM     34  C   UNL     1      14.252  56.902  11.982  0.00  0.00    +0.135 C 
ATOM     35  C   UNL     1      13.435  58.090  12.528  0.00  0.00    +0.146 C 
ATOM     36  N   UNL     1      14.304  59.319  12.609  0.00  0.00    +0.235 N 
ATOM     37  H   UNL     1      14.567  59.505  11.755  0.00  0.00    +0.203 HD
ATOM     38  C   UNL     1      13.546  60.525  13.094  0.00  0.00    +0.190 C 
ATOM     39  C   UNL     1      15.564  59.077  13.399  0.00  0.00    +0.146 C 
ATOM     40  C   UNL     1      16.315  57.862  12.821  0.00  0.00    +0.135 C 
ENDBRANCH  32  33
ENDBRANCH  29  32
ENDBRANCH  24  26
ENDBRANCH   3  22
TORSDOF 6
ENDMDL
MODEL 3
REMARK VINA RESULT:      -9.0      3.471     11.425
REMARK  Name = A STI 201 (1)
REMARK  8 active torsions:
REMARK  status: ('A' for Active; 'I' for Inactive)
REMARK    1  A    between atoms: C_3  and  C_7
REMARK    2  A    between atoms: N_13  and  C_14
REMARK    3  A    between atoms: C_15  and  C_37
REMARK    4  A    between atoms: C_18  and  N_20
REMARK    5  A    between atoms: C_21  and  C_22
REMARK    6  A    between atoms: C_25  and  C_28
REMARK    7  A    between atoms: C_28  and  N_29
REMARK    8  A    between atoms: N_32  and  C_33
REMARK                            x       y       z     vdW  Elec       q    Type
REMARK                         _______ _______ _______ _____ _____    ______ ____
ROOT
ATOM      1  C   UNL     1      17.473  54.895  13.197  0.00  0.00    +0.038 A 
ATOM      2  C   UNL     1      17.243  53.944  14.170  0.00  0.00    +0.046 A 
ATOM      3  C   UNL     1      16.817  52.674  13.832  0.00  0.00    +0.035 A 
ATOM      4  C   UNL     1      16.617  52.373  12.496  0.00  0.00    +0.024 A 
ATOM      5  C   UNL     1      16.843  53.317  11.522  0.00  0.00    +0.007 A 
ATOM      6  C   UNL     1      17.270  54.579  11.860  0.00  0.00    -0.029 A 
ATOM      7  C   UNL     1      17.522  55.589  10.754  0.00  0.00    +0.045 C 
ENDROOT
BRANCH   1  11
ATOM      8  C   UNL     1      15.189  58.280  12.872  0.00  0.00    +0.077 A 
ATOM      9  N   UNL     1      15.918  57.153  12.959  0.00  0.00    -0.214 NA
ATOM     10  C   UNL     1      17.155  57.313  13.472  0.00  0.00    +0.220 A 
ATOM     11  N   UNL     1      17.918  56.188  13.576  0.00  0.00    -0.283 N 
ATOM     12  H   UNL     1      18.731  56.274  13.892  0.00  0.00    +0.155 HD
ATOM     13  N   UNL     1      17.739  58.448  13.905  0.00  0.00    -0.223 NA
ATOM     14  C   UNL     1      16.965  59.541  13.798  0.00  0.00    +0.116 A 
ATOM     15  C   UNL     1      15.697  59.494  13.293  0.00  0.00    +0.048 A 
BRANCH   8  20
ATOM     16  C   UNL     1      11.815  58.918  11.389  0.00  0.00    +0.020 A 
ATOM     17  C   UNL     1      11.393  57.615  11.288  0.00  0.00    +0.111 A 
ATOM     18  N   UNL     1      12.134  56.559  11.673  0.00  0.00    -0.263 NA
ATOM     19  C   UNL     1      13.349  56.851  12.176  0.00  0.00    +0.120 A 
ATOM     20  C   UNL     1      13.854  58.132  12.312  0.00  0.00    +0.019 A 
ATOM     21  C   UNL     1      13.054  59.181  11.903  0.00  0.00    +0.013 A 
ENDBRANCH   8  20
ENDBRANCH   1  11
BRANCH   3  22
ATOM     22  N   UNL     1      16.585  51.691  14.809  0.00  0.00    -0.281 N 
ATOM     23  H   UNL     1      17.126  51.002  14.784  0.00  0.00    +0.155 HD
ATOM     24  C   UNL     1      15.642  51.685  15.780  0.00  0.00    +0.248 C 
ATOM     25  O   UNL     1      14.845  52.602  15.951  0.00  0.00    -0.270 OA
BRANCH  24  26
ATOM     26  C   UNL     1      15.527  50.538  16.721  0.00  0.00    +0.037 A 
ATOM     27  C   UNL     1      14.364  50.248  17.425  0.00  0.00    +0.013 A 
ATOM     28  C   UNL     1      14.309  49.175  18.281  0.00  0.00    +0.006 A 
ATOM     29  C   UNL     1      15.410  48.366  18.461  0.00  0.00    -0.033 A 
ATOM     30  C   UNL     1      16.570  48.643  17.773  0.00  0.00    +0.006 A 
ATOM     31  C   UNL     1      16.627  49.716  16.917  0.00  0.00    +0.013 A 
BRANCH  29  32
ATOM     32  C   UNL     1      15.342  47.182  19.416  0.00  0.00    +0.120 C 
BRANCH  32  33
ATOM     33  N   UNL     1      16.627  46.887  20.081  0.00  0.00    -0.288 NA
ATOM     34  C   UNL     1      16.596  45.534  20.666  0.00  0.00    +0.135 C 
ATOM     35  C   UNL     1      17.970  45.194  21.275  0.00  0.00    +0.146 C 
ATOM     36  N   UNL     1      18.351  46.232  22.299  0.00  0.00    +0.235 N 
ATOM     37  H   UNL     1      17.717  46.193  22.954  0.00  0.00    +0.203 HD
ATOM     38  C   UNL     1      19.668  45.927  22.961  0.00  0.00    +0.190 C 
ATOM     39  C   UNL     1      18.301  47.631  21.741  0.00  0.00    +0.146 C 
ATOM     40  C   UNL     1      16.914  47.894  21.123  0.00  0.00    +0.135 C 
ENDBRANCH  32  33
ENDBRANCH  29  32
ENDBRANCH  24  26
ENDBRANCH   3  22
TORSDOF 6
ENDMDL
MODEL 4
REMARK VINA RESULT:      -8.9      1.733      2.603
REMARK  Name = A STI 201 (1)
REMARK  8 active torsions:
REMARK  status: ('A' for Active; 'I' for Inactive)
REMARK    1  A    between atoms: C_3  and  C_7
REMARK    2  A    between atoms: N_13  and  C_14
REMARK    3  A    between atoms: C_15  and  C_37
REMARK    4  A    between atoms: C_18  and  N_20
REMARK    5  A    between atoms: C_21  and  C_22
REMARK    6  A    between atoms: C_25  and  C_28
REMARK    7  A    between atoms: C_28  and  N_29
REMARK    8  A    between atoms: N_32  and  C_33
REMARK                            x       y       z     vdW  Elec       q    Type
REMARK                         _______ _______ _______ _____ _____    ______ ____
ROOT
ATOM      1  C   UNL     1      16.631  48.020  19.787  0.00  0.00    +0.038 A 
ATOM      2  C   UNL     1      16.736  49.079  18.909  0.00  0.00    +0.046 A 
ATOM      3  C   UNL     1      16.317  48.956  17.598  0.00  0.00    +0.035 A 
ATOM      4  C   UNL     1      15.794  47.746  17.177  0.00  0.00    +0.024 A 
ATOM      5  C   UNL     1      15.690  46.686  18.047  0.00  0.00    +0.007 A 
ATOM      6  C   UNL     1      16.104  46.811  19.352  0.00  0.00    -0.029 A 
ATOM      7  C   UNL     1      15.958  45.622  20.285  0.00  0.00    +0.045 C 
ENDROOT
BRANCH   1  11
ATOM      8  C   UNL     1      20.565  48.042  20.931  0.00  0.00    +0.077 A 
ATOM      9  N   UNL     1      19.282  48.021  20.527  0.00  0.00    -0.214 NA
ATOM     10  C   UNL     1      18.373  48.192  21.508  0.00  0.00    +0.220 A 
ATOM     11  N   UNL     1      17.064  48.180  21.129  0.00  0.00    -0.283 N 
ATOM     12  H   UNL     1      16.456  48.273  21.755  0.00  0.00    +0.155 HD
ATOM     13  N   UNL     1      18.591  48.380  22.824  0.00  0.00    -0.223 NA
ATOM     14  C   UNL     1      19.888  48.395  23.172  0.00  0.00    +0.116 A 
ATOM     15  C   UNL     1      20.893  48.231  22.260  0.00  0.00    +0.048 A 
BRANCH   8  20
ATOM     16  C   UNL     1      22.875  46.568  18.386  0.00  0.00    +0.020 A 
ATOM     17  C   UNL     1      23.452  47.734  17.943  0.00  0.00    +0.111 A 
ATOM     18  N   UNL     1      23.135  48.951  18.422  0.00  0.00    -0.263 NA
ATOM     19  C   UNL     1      22.195  48.972  19.386  0.00  0.00    +0.120 A 
ATOM     20  C   UNL     1      21.563  47.849  19.890  0.00  0.00    +0.019 A 
ATOM     21  C   UNL     1      21.924  46.624  19.366  0.00  0.00    +0.013 A 
ENDBRANCH   8  20
ENDBRANCH   1  11
BRANCH   3  22
ATOM     22  N   UNL     1      16.409  50.027  16.692  0.00  0.00    -0.281 N 
ATOM     23  H   UNL     1      17.175  50.098  16.271  0.00  0.00    +0.155 HD
ATOM     24  C   UNL     1      15.464  50.946  16.386  0.00  0.00    +0.248 C 
ATOM     25  O   UNL     1      14.337  50.941  16.872  0.00  0.00    -0.270 OA
BRANCH  24  26
ATOM     26  C   UNL     1      15.747  52.033  15.411  0.00  0.00    +0.037 A 
ATOM     27  C   UNL     1      16.741  51.946  14.444  0.00  0.00    +0.013 A 
ATOM     28  C   UNL     1      16.961  52.978  13.565  0.00  0.00    +0.006 A 
ATOM     29  C   UNL     1      16.199  54.125  13.628  0.00  0.00    -0.033 A 
ATOM     30  C   UNL     1      15.213  54.228  14.583  0.00  0.00    +0.006 A 
ATOM     31  C   UNL     1      14.992  53.197  15.463  0.00  0.00    +0.013 A 
BRANCH  29  32
ATOM     32  C   UNL     1      16.453  55.266  12.653  0.00  0.00    +0.120 C 
BRANCH  32  33
ATOM     33  N   UNL     1      15.736  56.509  13.001  0.00  0.00    -0.288 NA
ATOM     34  C   UNL     1      14.610  56.721  12.073  0.00  0.00    +0.135 C 
ATOM     35  C   UNL     1      13.806  57.966  12.498  0.00  0.00    +0.146 C 
ATOM     36  N   UNL     1      14.712  59.169  12.556  0.00  0.00    +0.235 N 
ATOM     37  H   UNL     1      15.029  59.293  11.709  0.00  0.00    +0.203 HD
ATOM     38  C   UNL     1      13.971  60.426  12.923  0.00  0.00    +0.190 C 
ATOM     39  C   UNL     1      15.917  58.936  13.431  0.00  0.00    +0.146 C 
ATOM     40  C   UNL     1      16.655  57.664  12.971  0.00  0.00    +0.135 C 
ENDBRANCH  32  33
ENDBRANCH  29  32
ENDBRANCH  24  26
ENDBRANCH   3  22
TORSDOF 6
ENDMDL
MODEL 5
REMARK VINA RESULT:      -8.7      2.718      4.254
REMARK  Name = A STI 201 (1)
REMARK  8 active torsions:
REMARK  status: ('A' for Active; 'I' for Inactive)
REMARK    1  A    between atoms: C_3  and  C_7
REMARK    2  A    between atoms: N_13  and  C_14
REMARK    3  A    between atoms: C_15  and  C_37
REMARK    4  A    between atoms: C_18  and  N_20
REMARK    5  A    between atoms: C_21  and  C_22
REMARK    6  A    between atoms: C_25  and  C_28
REMARK    7  A    between atoms: C_28  and  N_29
REMARK    8  A    between atoms: N_32  and  C_33
REMARK                            x       y       z     vdW  Elec       q    Type
REMARK                         _______ _______ _______ _____ _____    ______ ____
ROOT
ATOM      1  C   UNL     1      19.355  47.445  22.334  0.00  0.00    +0.038 A 
ATOM      2  C   UNL     1      18.838  48.136  21.257  0.00  0.00    +0.046 A 
ATOM      3  C   UNL     1      18.162  47.474  20.250  0.00  0.00    +0.035 A 
ATOM      4  C   UNL     1      18.016  46.101  20.337  0.00  0.00    +0.024 A 
ATOM      5  C   UNL     1      18.531  45.406  21.407  0.00  0.00    +0.007 A 
ATOM      6  C   UNL     1      19.201  46.067  22.410  0.00  0.00    -0.029 A 
ATOM      7  C   UNL     1      19.742  45.267  23.582  0.00  0.00    +0.045 C 
ENDROOT
BRANCH   1  11
ATOM      8  C   UNL     1      22.529  49.942  21.648  0.00  0.00    +0.077 A 
ATOM      9  N   UNL     1      21.491  49.109  21.844  0.00  0.00    -0.214 NA
ATOM     10  C   UNL     1      21.091  48.989  23.126  0.00  0.00    +0.220 A 
ATOM     11  N   UNL     1      20.038  48.154  23.356  0.00  0.00    -0.283 N 
ATOM     12  H   UNL     1      19.773  48.050  24.186  0.00  0.00    +0.155 HD
ATOM     13  N   UNL     1      21.596  49.595  24.218  0.00  0.00    -0.223 NA
ATOM     14  C   UNL     1      22.628  50.417  23.965  0.00  0.00    +0.116 A 
ATOM     15  C   UNL     1      23.115  50.614  22.704  0.00  0.00    +0.048 A 
BRANCH   8  20
ATOM     16  C   UNL     1      23.800  51.273  18.392  0.00  0.00    +0.020 A 
ATOM     17  C   UNL     1      23.800  50.096  17.684  0.00  0.00    +0.111 A 
ATOM     18  N   UNL     1      23.414  48.914  18.200  0.00  0.00    -0.263 NA
ATOM     19  C   UNL     1      23.015  48.943  19.486  0.00  0.00    +0.120 A 
ATOM     20  C   UNL     1      22.984  50.080  20.273  0.00  0.00    +0.019 A 
ATOM     21  C   UNL     1      23.389  51.267  19.696  0.00  0.00    +0.013 A 
ENDBRANCH   8  20
ENDBRANCH   1  11
BRANCH   3  22
ATOM     22  N   UNL     1      17.623  48.162  19.149  0.00  0.00    -0.281 N 
ATOM     23  H   UNL     1      18.197  48.376  18.522  0.00  0.00    +0.155 HD
ATOM     24  C   UNL     1      16.335  48.522  18.938  0.00  0.00    +0.248 C 
ATOM     25  O   UNL     1      15.424  48.254  19.716  0.00  0.00    -0.270 OA
BRANCH  24  26
ATOM     26  C   UNL     1      15.946  49.273  17.715  0.00  0.00    +0.037 A 
ATOM     27  C   UNL     1      14.756  49.049  17.032  0.00  0.00    +0.013 A 
ATOM     28  C   UNL     1      14.443  49.773  15.908  0.00  0.00    +0.006 A 
ATOM     29  C   UNL     1      15.306  50.736  15.432  0.00  0.00    -0.033 A 
ATOM     30  C   UNL     1      16.490  50.967  16.096  0.00  0.00    +0.006 A 
ATOM     31  C   UNL     1      16.805  50.244  17.220  0.00  0.00    +0.013 A 
BRANCH  29  32
ATOM     32  C   UNL     1      14.953  51.530  14.182  0.00  0.00    +0.120 C 
BRANCH  32  33
ATOM     33  N   UNL     1      15.763  52.752  14.012  0.00  0.00    -0.288 NA
ATOM     34  C   UNL     1      14.906  53.873  13.584  0.00  0.00    +0.135 C 
ATOM     35  C   UNL     1      15.738  55.168  13.501  0.00  0.00    +0.146 C 
ATOM     36  N   UNL     1      16.904  54.973  12.566  0.00  0.00    +0.235 N 
ATOM     37  H   UNL     1      16.548  54.794  11.745  0.00  0.00    +0.203 HD
ATOM     38  C   UNL     1      17.728  56.222  12.410  0.00  0.00    +0.190 C 
ATOM     39  C   UNL     1      17.740  53.776  12.938  0.00  0.00    +0.146 C 
ATOM     40  C   UNL     1      16.845  52.525  13.032  0.00  0.00    +0.135 C 
ENDBRANCH  32  33
ENDBRANCH  29  32
ENDBRANCH  24  26
ENDBRANCH   3  22
TORSDOF 6
ENDMDL
